@<TRIPOS>MOLECULE
Molecule Name
12 11
SMALL
NO_CHARGES


@<TRIPOS>ATOM
1 C1     2.4610    -0.6498    -2.4964 C
2 H2     2.6958    -1.6901    -2.5824 H
3 H3     2.9809    -0.2349    -1.6583 H
4 H4     1.4067    -0.5325    -2.3558 H
5 C5     2.8920     0.0817    -3.7813 C
6 H6     2.6571     1.1220    -3.6953 H
7 H7     2.3721    -0.3333    -4.6194 H
8 C8     4.4093    -0.0871    -3.9836 C
9 O9     5.0695     0.8098    -4.5694 O
10 N10     5.0863    -1.2959    -3.4924 N
11 H11     5.0824    -1.9943    -4.2081 H
12 H12     6.0304    -1.0735    -3.2489 H
@<TRIPOS>BOND
1 1 2 1
2 1 3 1
3 1 4 1
4 1 5 1
5 5 6 1
6 5 7 1
7 5 8 1
8 8 9 2
9 8 10 1
10 10 11 1
11 10 12 1
