@<TRIPOS>MOLECULE
Molecule Name
22 21
SMALL
NO_CHARGES


@<TRIPOS>ATOM
1 C1     2.6292    -0.6744    -2.6538 C
2 H2     3.0916    -1.6302    -2.7856 H
3 H3     3.0275    -0.2030    -1.7797 H
4 H4     1.5729    -0.8018    -2.5404 H
5 C5     2.9107     0.2063    -3.8854 C
6 H6     2.5124    -0.2651    -4.7595 H
7 C7     4.4310     0.3897    -4.0487 C
8 O8     4.8857     1.4424    -4.5669 O
9 N9     5.3510    -0.6650    -3.5992 N
10 H10     5.5165    -1.3051    -4.3495 H
11 H11     6.2169    -0.2533    -3.3152 H
12 C12     2.2451     1.5820    -3.6957 C
13 H13     1.1888     1.4546    -3.5823 H
14 H14     2.6434     2.0534    -2.8216 H
15 C15     2.5266     2.4626    -4.9273 C
16 H16     2.0642     3.4185    -4.7955 H
17 H17     2.1283     1.9912    -5.8014 H
18 C18     4.0469     2.6460    -5.0905 C
19 O19     4.6280     3.6112    -4.5299 O
20 N20     4.8192     1.6937    -5.9014 N
21 H21     4.8481     2.0099    -6.8496 H
22 H22     5.7506     1.6293    -5.5430 H
@<TRIPOS>BOND
1 1 2 1
2 1 3 1
3 1 4 1
4 1 5 1
5 5 6 1
6 5 7 1
7 5 12 1
8 7 8 2
9 7 9 1
10 9 10 1
11 9 11 1
12 12 13 1
13 12 14 1
14 12 15 1
15 15 16 1
16 15 17 1
17 15 18 1
18 18 19 2
19 18 20 1
20 20 21 1
21 20 22 1
