@<TRIPOS>MOLECULE
Molecule Name
32 31
SMALL
NO_CHARGES


@<TRIPOS>ATOM
1 C1     2.6457    -0.7091    -2.8613 C
2 H2     3.1958    -1.6154    -3.0062 H
3 H3     2.9082    -0.2797    -1.9171 H
4 H4     1.5972    -0.9219    -2.8772 H
5 C5     2.9852     0.2834    -3.9888 C
6 H6     2.7227    -0.1461    -4.9330 H
7 C7     4.4943     0.5896    -3.9660 C
8 O8     4.9149     1.7101    -4.3548 O
9 N9     5.4435    -0.4269    -3.4899 N
10 H10     5.7400    -0.9925    -4.2594 H
11 H11     6.2375     0.0236    -3.0818 H
12 C12     2.1935     1.5877    -3.7802 C
13 H13     1.1450     1.3749    -3.7961 H
14 H14     2.4560     2.0172    -2.8360 H
15 C15     2.5330     2.5802    -4.9077 C
16 H16     2.2705     2.1507    -5.8519 H
17 C17     4.0421     2.8864    -4.8849 C
18 O18     4.4793     3.8447    -4.1962 O
19 N19     4.9718     2.0594    -5.6675 N
20 H20     5.0765     2.4501    -6.5821 H
21 H21     5.8615     2.0355    -5.2115 H
22 C22     1.7413     3.8845    -4.6991 C
23 H23     0.6928     3.6717    -4.7150 H
24 H24     2.0038     4.3140    -3.7549 H
25 C25     2.0808     4.8770    -5.8266 C
26 H26     1.5307     5.7833    -5.6817 H
27 H27     1.8183     4.4476    -6.7709 H
28 C28     3.5899     5.1833    -5.8038 C
29 O29     4.0271     6.1415    -5.1151 O
30 N30     4.5196     4.3563    -6.5864 N
31 H31     4.6243     4.7469    -7.5010 H
32 H32     5.4093     4.3323    -6.1304 H
@<TRIPOS>BOND
1 1 2 1
2 1 3 1
3 1 4 1
4 1 5 1
5 5 6 1
6 5 7 1
7 5 12 1
8 7 8 2
9 7 9 1
10 9 10 1
11 9 11 1
12 12 13 1
13 12 14 1
14 12 15 1
15 15 16 1
16 15 17 1
17 15 22 1
18 17 18 2
19 17 19 1
20 19 20 1
21 19 21 1
22 22 23 1
23 22 24 1
24 22 25 1
25 25 26 1
26 25 27 1
27 25 28 1
28 28 29 2
29 28 30 1
30 30 31 1
31 30 32 1
