@<TRIPOS>MOLECULE
Molecule Name
42 41
SMALL
NO_CHARGES


@<TRIPOS>ATOM
1 C1     2.6601    -0.7333    -3.0648 C
2 H2     3.2678    -1.6021    -3.2088 H
3 H3     2.8174    -0.3475    -2.0792 H
4 H4     1.6296    -0.9947    -3.1852 H
5 C5     3.0425     0.3383    -4.1026 C
6 H6     2.8853    -0.0475    -5.0882 H
7 C7     4.5257     0.7147    -3.9293 C
8 O8     4.9185     1.8747    -4.2183 O
9 N9     5.4828    -0.2812    -3.4261 N
10 H10     5.8739    -0.7862    -4.1956 H
11 H11     6.2139     0.1822    -2.9255 H
12 C12     2.1680     1.5889    -3.8953 C
13 H13     1.1375     1.3274    -4.0157 H
14 H14     2.3253     1.9747    -2.9097 H
15 C15     2.5504     2.6605    -4.9331 C
16 H16     2.3931     2.2747    -5.9187 H
17 C17     4.0336     3.0368    -4.7598 C
18 O18     4.3587     3.9731    -3.9844 O
19 N19     5.0696     2.3023    -5.5000 N
20 H20     5.2318     2.7501    -6.3793 H
21 H21     5.9167     2.2945    -4.9687 H
22 C22     1.6759     3.9110    -4.7258 C
23 H23     0.6454     3.6496    -4.8462 H
24 H24     1.8332     4.2968    -3.7402 H
25 C25     2.0583     4.9826    -5.7636 C
26 H26     1.9010     4.5968    -6.7491 H
27 C27     3.5415     5.3590    -5.5902 C
28 O28     3.8666     6.2953    -4.8149 O
29 N29     4.5775     4.6244    -6.3305 N
30 H30     4.7397     5.0723    -7.2098 H
31 H31     5.4246     4.6166    -5.7992 H
32 C32     1.1838     6.2332    -5.5563 C
33 H33     0.1532     5.9717    -5.6767 H
34 H34     1.3410     6.6190    -4.5707 H
35 C35     1.5662     7.3048    -6.5941 C
36 H36     0.9586     8.1737    -6.4500 H
37 H37     1.4089     6.9190    -7.5796 H
38 C38     3.0494     7.6811    -6.4207 C
39 O39     3.3745     8.6174    -5.6454 O
40 N40     4.0854     6.9466    -7.1610 N
41 H41     4.2476     7.3944    -8.0403 H
42 H42     4.9325     6.9388    -6.6297 H
@<TRIPOS>BOND
1 1 2 1
2 1 3 1
3 1 4 1
4 1 5 1
5 5 6 1
6 5 7 1
7 5 12 1
8 7 8 2
9 7 9 1
10 9 10 1
11 9 11 1
12 12 13 1
13 12 14 1
14 12 15 1
15 15 16 1
16 15 17 1
17 15 22 1
18 17 18 2
19 17 19 1
20 19 20 1
21 19 21 1
22 22 23 1
23 22 24 1
24 22 25 1
25 25 26 1
26 25 27 1
27 25 32 1
28 27 28 2
29 27 29 1
30 29 30 1
31 29 31 1
32 32 33 1
33 32 34 1
34 32 35 1
35 35 36 1
36 35 37 1
37 35 38 1
38 38 39 2
39 38 40 1
40 40 41 1
41 40 42 1
