@<TRIPOS>MOLECULE
Molecule Name
52 51
SMALL
NO_CHARGES


@<TRIPOS>ATOM
1 C1     2.6646    -0.7454    -3.2459 C
2 H2     3.3037    -1.5913    -3.3901 H
3 H3     2.7528    -0.3995    -2.2373 H
4 H4     1.6506    -1.0274    -3.4388 H
5 C5     3.0770     0.3802    -4.2127 C
6 H6     2.9888     0.0341    -5.2214 H
7 C7     4.5365     0.7863    -3.9351 C
8 O8     4.9131     1.9673    -4.1514 O
9 N9     5.4897    -0.2060    -3.4172 N
10 H10     5.9392    -0.6673    -4.1821 H
11 H11     6.1769     0.2539    -2.8549 H
12 C12     2.1565     1.5974    -4.0052 C
13 H13     1.1427     1.3143    -4.1972 H
14 H14     2.2454     1.9439    -2.9967 H
15 C15     2.5665     2.7233    -4.9729 C
16 H16     2.4772     2.3768    -5.9814 H
17 C17     4.0258     3.1315    -4.6979 C
18 O18     4.2785     4.0410    -3.8656 O
19 N19     5.1235     2.4590    -5.4076 N
20 H20     5.3220     2.9497    -6.2560 H
21 H21     5.9390     2.4505    -4.8288 H
22 C22     1.6447     3.9394    -4.7644 C
23 H23     0.6310     3.6550    -4.9546 H
24 H24     1.7347     4.2865    -3.7562 H
25 C25     2.0519     5.0651    -5.7334 C
26 H26     1.9620     4.7177    -6.7415 H
27 C27     3.5110     5.4751    -5.4601 C
28 O28     3.7637     6.3863    -4.6297 O
29 N29     4.6086     4.8020    -6.1694 N
30 H30     4.8061     5.2911    -7.0190 H
31 H31     5.4245     4.7952    -5.5913 H
32 C32     1.1289     6.2804    -5.5251 C
33 H33     0.1152     5.9945    -5.7141 H
34 H34     1.2194     6.6284    -4.5173 H
35 C35     1.5337     7.4060    -6.4953 C
36 H36     1.4431     7.0578    -7.5031 H
37 C37     2.9923     7.8187    -6.2239 C
38 O38     3.2443     8.7301    -5.3936 O
39 N39     4.0904     7.1482    -6.9348 N
40 H40     4.2857     7.6382    -7.7843 H
41 H41     4.9070     7.1429    -6.3578 H
42 C42     0.6096     8.6202    -6.2868 C
43 H43    -0.4039     8.3335    -6.4753 H
44 H44     0.7002     8.9685    -5.2791 H
45 C45     1.0138     9.7456    -7.2573 C
46 H46     0.3716    10.5892    -7.1126 H
47 H47     0.9234     9.3972    -8.2649 H
48 C48     2.4724    10.1584    -6.9855 C
49 O49     2.7242    11.0705    -6.1559 O
50 N50     3.5707     9.4867    -7.6952 N
51 H51     3.7666     9.9757    -8.5452 H
52 H52     4.3870     9.4818    -7.1177 H
@<TRIPOS>BOND
1 1 2 1
2 1 3 1
3 1 4 1
4 1 5 1
5 5 6 1
6 5 7 1
7 5 12 1
8 7 8 2
9 7 9 1
10 9 10 1
11 9 11 1
12 12 13 1
13 12 14 1
14 12 15 1
15 15 16 1
16 15 17 1
17 15 22 1
18 17 18 2
19 17 19 1
20 19 20 1
21 19 21 1
22 22 23 1
23 22 24 1
24 22 25 1
25 25 26 1
26 25 27 1
27 25 32 1
28 27 28 2
29 27 29 1
30 29 30 1
31 29 31 1
32 32 33 1
33 32 34 1
34 32 35 1
35 35 36 1
36 35 37 1
37 35 42 1
38 37 38 2
39 37 39 1
40 39 40 1
41 39 41 1
42 42 43 1
43 42 44 1
44 42 45 1
45 45 46 1
46 45 47 1
47 45 48 1
48 48 49 2
49 48 50 1
50 50 51 1
51 50 52 1
