@<TRIPOS>MOLECULE
Molecule Name
16 15
SMALL
NO_CHARGES


@<TRIPOS>ATOM
1 C1    -3.6679     0.5633     0.0380 C
2 H2    -4.7333     0.4643     0.0264 H
3 C3    -3.2030     1.2599    -1.2543 C
4 H4    -3.4977     0.6751    -2.1005 H
5 H5    -3.6507     2.2297    -1.3176 H
6 H6    -2.1377     1.3589    -1.2427 H
7 O7    -3.0696    -0.7328     0.1227 O
8 H8    -3.3595    -1.1670     0.9283 H
9 C9    -3.2438     1.4049     1.2560 C
10 H10    -3.6915     2.3747     1.1926 H
11 H11    -2.1785     1.5040     1.2676 H
12 C12    -3.7088     0.7083     2.5483 C
13 H13    -3.4141     1.2931     3.3946 H
14 H14    -4.7741     0.6093     2.5367 H
15 O15    -3.1105    -0.5877     2.6330 O
16 H16    -3.4003    -1.0220     3.4386 H
@<TRIPOS>BOND
1 1 2 1
2 1 3 1
3 1 7 1
4 1 9 1
5 3 4 1
6 3 5 1
7 3 6 1
8 7 8 1
9 9 10 1
10 9 11 1
11 9 12 1
12 12 13 1
13 12 14 1
14 12 15 1
15 15 16 1
