@<TRIPOS>MOLECULE
Molecule Name
23 22
SMALL
NO_CHARGES


@<TRIPOS>ATOM
1 C1    -3.6101     0.5098     0.0559 C
2 H2    -4.6599     0.3035     0.0412 H
3 C3    -3.2058     1.2079    -1.2559 C
4 H4    -3.4323     0.5695    -2.0842 H
5 H5    -3.7481     2.1251    -1.3537 H
6 H6    -2.1559     1.4142    -1.2412 H
7 O7    -2.8853    -0.7159     0.1866 O
8 H8    -3.1373    -1.1511     1.0043 H
9 C9    -3.2841     1.4286     1.2480 C
10 H10    -3.8265     2.3458     1.1502 H
11 H11    -2.2343     1.6349     1.2627 H
12 C12    -3.6885     0.7305     2.5597 C
13 H13    -4.7383     0.5242     2.5451 H
14 O14    -2.9636    -0.4952     2.6905 O
15 H15    -3.2157    -0.9304     3.5082 H
16 C16    -3.3625     1.6493     3.7519 C
17 H17    -3.9049     2.5664     3.6540 H
18 H18    -2.3127     1.8556     3.7665 H
19 C19    -3.7669     0.9512     5.0636 C
20 H20    -3.5404     1.5895     5.8919 H
21 H21    -4.8167     0.7449     5.0489 H
22 O22    -3.0420    -0.2746     5.1943 O
23 H23    -3.2941    -0.7098     6.0121 H
@<TRIPOS>BOND
1 1 2 1
2 1 3 1
3 1 7 1
4 1 9 1
5 3 4 1
6 3 5 1
7 3 6 1
8 7 8 1
9 9 10 1
10 9 11 1
11 9 12 1
12 12 13 1
13 12 14 1
14 12 16 1
15 14 15 1
16 16 17 1
17 16 18 1
18 16 19 1
19 19 20 1
20 19 21 1
21 19 22 1
22 22 23 1
