@<TRIPOS>MOLECULE
Molecule Name
30 29
SMALL
NO_CHARGES


@<TRIPOS>ATOM
1 C1    -3.5913     0.4723     0.0802 C
2 H2    -4.6313     0.2212     0.0723 H
3 C3    -3.2198     1.1627    -1.2453 C
4 H4    -3.4205     0.5001    -2.0611 H
5 H5    -3.8010     2.0539    -1.3584 H
6 H6    -2.1797     1.4138    -1.2374 H
7 O7    -2.8144    -0.7187     0.2313 O
8 H8    -3.0460    -1.1491     1.0576 H
9 C9    -3.3024     1.4260     1.2543 C
10 H10    -3.8836     2.3172     1.1412 H
11 H11    -2.2623     1.6772     1.2622 H
12 C12    -3.6739     0.7356     2.5798 C
13 H13    -4.7139     0.4845     2.5719 H
14 O14    -2.8970    -0.4554     2.7310 O
15 H15    -3.1286    -0.8858     3.5572 H
16 C16    -3.3850     1.6894     3.7539 C
17 H17    -3.9662     2.5806     3.6408 H
18 H18    -2.3449     1.9405     3.7619 H
19 C19    -3.7565     0.9990     5.0794 C
20 H20    -4.7966     0.7478     5.0715 H
21 O21    -2.9797    -0.1921     5.2306 O
22 H22    -3.2112    -0.6225     6.0569 H
23 C23    -3.4676     1.9527     6.2536 C
24 H24    -4.0489     2.8439     6.1405 H
25 H25    -2.4275     2.2038     6.2615 H
26 C26    -3.8391     1.2623     7.5791 C
27 H27    -3.6384     1.9249     8.3948 H
28 H28    -4.8792     1.0111     7.5711 H
29 O29    -3.0623     0.0712     7.7302 O
30 H30    -3.2938    -0.3592     8.5565 H
@<TRIPOS>BOND
1 1 2 1
2 1 3 1
3 1 7 1
4 1 9 1
5 3 4 1
6 3 5 1
7 3 6 1
8 7 8 1
9 9 10 1
10 9 11 1
11 9 12 1
12 12 13 1
13 12 14 1
14 12 16 1
15 14 15 1
16 16 17 1
17 16 18 1
18 16 19 1
19 19 20 1
20 19 21 1
21 19 23 1
22 21 22 1
23 23 24 1
24 23 25 1
25 23 26 1
26 26 27 1
27 26 28 1
28 26 29 1
29 29 30 1
