@<TRIPOS>MOLECULE
Molecule Name
37 36
SMALL
NO_CHARGES


@<TRIPOS>ATOM
1 C1    -3.5780     0.4373     0.1008 C
2 H2    -4.6093     0.1520     0.0991 H
3 C3    -3.2329     1.1230    -1.2343 C
4 H4    -3.4138     0.4440    -2.0412 H
5 H5    -3.8435     1.9931    -1.3566 H
6 H6    -2.2016     1.4083    -1.2326 H
7 O7    -2.7620    -0.7255     0.2643 O
8 H8    -2.9771    -1.1529     1.0966 H
9 C9    -3.3177     1.4146     1.2621 C
10 H10    -3.9283     2.2847     1.1398 H
11 H11    -2.2864     1.6999     1.2638 H
12 C12    -3.6628     0.7290     2.5972 C
13 H13    -4.6941     0.4437     2.5955 H
14 O14    -2.8468    -0.4339     2.7608 O
15 H15    -3.0619    -0.8613     3.5930 H
16 C16    -3.4025     1.7063     3.7585 C
17 H17    -4.0131     2.5764     3.6362 H
18 H18    -2.3712     1.9916     3.7602 H
19 C19    -3.7476     1.0206     5.0936 C
20 H20    -4.7789     0.7353     5.0919 H
21 O21    -2.9316    -0.1423     5.2572 O
22 H22    -3.1467    -0.5697     6.0894 H
23 C23    -3.4873     1.9979     6.2549 C
24 H24    -4.0979     2.8680     6.1326 H
25 H25    -2.4560     2.2832     6.2566 H
26 C26    -3.8324     1.3122     7.5900 C
27 H27    -4.8637     1.0269     7.5883 H
28 O28    -3.0164     0.1494     7.7536 O
29 H29    -3.2315    -0.2781     8.5858 H
30 C30    -3.5721     2.2895     8.7514 C
31 H31    -4.1827     3.1596     8.6290 H
32 H32    -2.5408     2.5748     8.7531 H
33 C33    -3.9172     1.6038    10.0864 C
34 H34    -3.7363     2.2829    10.8933 H
35 H35    -4.9485     1.3185    10.0847 H
36 O36    -3.1012     0.4410    10.2500 O
37 H37    -3.3163     0.0135    11.0822 H
@<TRIPOS>BOND
1 1 2 1
2 1 3 1
3 1 7 1
4 1 9 1
5 3 4 1
6 3 5 1
7 3 6 1
8 7 8 1
9 9 10 1
10 9 11 1
11 9 12 1
12 12 13 1
13 12 14 1
14 12 16 1
15 14 15 1
16 16 17 1
17 16 18 1
18 16 19 1
19 19 20 1
20 19 21 1
21 19 23 1
22 21 22 1
23 23 24 1
24 23 25 1
25 23 26 1
26 26 27 1
27 26 28 1
28 26 30 1
29 28 29 1
30 30 31 1
31 30 32 1
32 30 33 1
33 33 34 1
34 33 35 1
35 33 36 1
36 36 37 1
