@<TRIPOS>MOLECULE
Molecule Name
9 8
SMALL
NO_CHARGES


@<TRIPOS>ATOM
1 C1    -3.7137     0.5846     0.0001 C
2 H2    -3.3570     1.0892     0.8737 H
3 H3    -4.7837     0.5844     0.0002 H
4 C4    -3.2006     1.3105    -1.2574 C
5 H5    -3.5572     0.8060    -2.1310 H
6 H6    -3.5574     2.3193    -1.2575 H
7 H7    -2.1306     1.3108    -1.2575 H
8 O8    -3.2367    -0.7635     0.0002 O
9 H9    -3.5566    -1.2161     0.7841 H
@<TRIPOS>BOND
1 1 2 1
2 1 3 1
3 1 4 1
4 1 8 1
5 4 5 1
6 4 6 1
7 4 7 1
8 8 9 1
