@<TRIPOS>MOLECULE
Molecule Name
36 35
SMALL
NO_CHARGES


@<TRIPOS>ATOM
1 C1    -3.7830    -3.7035     6.8678 C
2 C2    -6.0786    -3.6392     7.5667 C
3 H3    -6.3358    -4.3227     6.7847 H
4 H4    -6.1607    -2.6357     7.2045 H
5 C5    -7.0368    -3.8357     8.7561 C
6 H6    -6.7795    -3.1521     9.5381 H
7 H7    -6.9547    -4.8392     9.1182 H
8 O8    -4.0696    -2.8830     5.9578 O
9 N9    -4.6976    -3.8911     8.0031 N
10 H10    -4.4572    -3.2523     8.7339 H
11 O11    -8.3801    -3.5906     8.3315 O
12 H12    -8.9775    -3.7131     9.0730 H
13 C13    -2.2719    -5.6457     7.8135 C
14 H14    -3.0208    -6.3957     7.6665 H
15 H15    -1.3026    -6.0785     7.6789 H
16 C16    -1.6585    -4.4332     5.4879 C
17 H17    -2.2338    -4.8399     4.6826 H
18 H18    -1.4211    -3.4116     5.2762 H
19 H19    -0.7539    -4.9940     5.5988 H
20 C20    -2.4739    -4.5112     6.7919 C
21 H21    -2.9369    -5.3112     6.2528 H
22 C22    -1.3091    -3.9988     9.4521 C
23 C23    -1.5531    -2.7567    11.4917 C
24 H24    -1.5340    -1.8419    10.9369 H
25 H25    -2.5629    -3.0994    11.5796 H
26 C26    -0.9680    -2.5177    12.8960 C
27 H27     0.0418    -2.1749    12.8081 H
28 H28    -0.9872    -3.4324    13.4508 H
29 O29    -0.9064    -3.3122     8.4774 O
30 N30    -0.7506    -3.7706    10.7926 N
31 H31     0.1932    -3.4503    10.7104 H
32 O32    -1.7487    -1.5313    13.5761 O
33 H33    -1.3840    -1.3823    14.4515 H
34 C34    -2.3870    -5.0781     9.2405 C
35 H35    -2.2466    -5.8664     9.9503 H
36 H36    -3.3563    -4.6454     9.3751 H
@<TRIPOS>BOND
1 1 8 2
2 1 9 1
3 1 20 1
4 2 3 1
5 2 4 1
6 2 5 1
7 2 9 1
8 5 6 1
9 5 7 1
10 5 11 1
11 9 10 1
12 11 12 1
13 13 14 1
14 13 15 1
15 13 20 1
16 13 34 1
17 16 17 1
18 16 18 1
19 16 19 1
20 16 20 1
21 20 21 1
22 22 29 2
23 22 30 1
24 22 34 1
25 23 24 1
26 23 25 1
27 23 26 1
28 23 30 1
29 26 27 1
30 26 28 1
31 26 32 1
32 30 31 1
33 32 33 1
34 34 35 1
35 34 36 1
