@<TRIPOS>MOLECULE
Molecule Name
53 52
SMALL
NO_CHARGES


@<TRIPOS>ATOM
1 C1    -4.1846    -3.5488     7.6976 C
2 C2    -5.0808    -2.7764     9.7862 C
3 H3    -6.0688    -2.8182     9.3776 H
4 H4    -4.6618    -1.8082     9.6080 H
5 C5    -5.1409    -3.0387    11.3026 C
6 H6    -4.1529    -2.9968    11.7112 H
7 H7    -5.5598    -4.0070    11.4807 H
8 O8    -4.2789    -2.3734     7.2580 O
9 N9    -4.2418    -3.7991     9.1450 N
10 H10    -3.3183    -3.7601     9.5267 H
11 O11    -5.9573    -2.0440    11.9264 O
12 H12    -5.9948    -2.2076    12.8716 H
13 C13    -3.2038    -5.8456     7.4024 C
14 H14    -3.7269    -6.1808     8.2735 H
15 H15    -3.0825    -6.6630     6.7226 H
16 C16    -1.9938    -4.1309     8.7884 C
17 C17    -1.5975    -3.2593    10.9898 C
18 H18    -2.0709    -2.3410    10.7115 H
19 H19    -2.3290    -3.9313    11.3877 H
20 C20    -0.5228    -2.9800    12.0569 C
21 H21     0.2087    -2.3081    11.6590 H
22 H22    -0.0495    -3.8984    12.3353 H
23 O23    -3.0140    -3.3978     8.7157 O
24 N24    -0.9681    -3.8644     9.8072 N
25 H25    -0.2845    -3.2363     9.4355 H
26 O26    -1.1350    -2.3914    13.2074 O
27 H27    -0.4650    -2.2173    13.8726 H
28 C28    -1.7673    -6.9103     9.7471 C
29 H29    -1.8885    -6.0928    10.4268 H
30 C30    -1.8196    -5.3075     7.8101 C
31 H31    -1.2964    -4.9725     6.9389 H
32 C32    -1.0142    -6.4282     8.4934 C
33 H33    -0.0524    -6.0543     8.7767 H
34 H34    -0.8930    -7.2456     7.8137 H
35 C35    -3.1515    -7.4483     9.3391 C
36 H36    -3.7110    -6.6696     8.8643 H
37 H37    -3.0302    -8.2657     8.6595 H
38 H38    -3.6748    -7.7833    10.2102 H
39 C39     0.9148    -7.4389     9.0559 C
40 H40     0.4938    -7.9924     8.2427 H
41 H41     0.5672    -6.4277     9.0169 H
42 C42     2.4510    -7.4582     8.9492 C
43 H43     2.7985    -8.4695     8.9883 H
44 H44     2.8720    -6.9047     9.7624 H
45 O45    -1.5592    -8.9310    11.0762 O
46 C46    -0.9620    -8.0310    10.4305 C
47 N47     0.5043    -8.0494    10.3286 N
48 H48     0.8291    -8.9945    10.3651 H
49 O49     2.8503    -6.8645     7.7111 O
50 H50     3.8079    -6.8766     7.6446 H
51 C51    -4.0095    -4.7251     6.7191 C
52 H52    -3.4861    -4.3897     5.8482 H
53 H53    -4.9710    -5.0992     6.4355 H
@<TRIPOS>BOND
1 1 8 2
2 1 9 1
3 1 51 1
4 2 3 1
5 2 4 1
6 2 5 1
7 2 9 1
8 5 6 1
9 5 7 1
10 5 11 1
11 9 10 1
12 11 12 1
13 13 14 1
14 13 15 1
15 13 30 1
16 13 51 1
17 16 23 2
18 16 24 1
19 16 30 1
20 17 18 1
21 17 19 1
22 17 20 1
23 17 24 1
24 20 21 1
25 20 22 1
26 20 26 1
27 24 25 1
28 26 27 1
29 28 29 1
30 28 32 1
31 28 35 1
32 28 46 1
33 30 31 1
34 30 32 1
35 32 33 1
36 32 34 1
37 35 36 1
38 35 37 1
39 35 38 1
40 39 40 1
41 39 41 1
42 39 42 1
43 39 47 1
44 42 43 1
45 42 44 1
46 42 49 1
47 45 46 2
48 46 47 1
49 47 48 1
50 49 50 1
51 51 52 1
52 51 53 1
