@<TRIPOS>MOLECULE
Molecule Name
70 69
SMALL
NO_CHARGES


@<TRIPOS>ATOM
1 C1    -3.9627    -3.3083     7.6694 C
2 C2    -4.8858    -2.5327     9.7452 C
3 H3    -5.8601    -2.5109     9.3035 H
4 H4    -4.4088    -1.5854     9.6036 H
5 C5    -5.0118    -2.8240    11.2521 C
6 H6    -4.0375    -2.8458    11.6939 H
7 H7    -5.4888    -3.7713    11.3935 H
8 O8    -3.9788    -2.1205     7.2541 O
9 N9    -4.0823    -3.5859     9.1080 N
10 H10    -3.1716    -3.6059     9.5205 H
11 O11    -5.7934    -1.7995    11.8720 O
12 H12    -5.8720    -1.9811    12.8114 H
13 C13    -3.0964    -5.6479     7.3543 C
14 H14    -3.6656    -5.9721     8.2003 H
15 H15    -2.9962    -6.4564     6.6607 H
16 C16    -1.8436    -4.0297     8.8162 C
17 C17    -1.4766    -3.2256    11.0479 C
18 H18    -1.8904    -2.2776    10.7743 H
19 H19    -2.2561    -3.8650    11.4064 H
20 C20    -0.4258    -3.0265    12.1559 C
21 H21     0.3538    -2.3872    11.7975 H
22 H22    -0.0120    -3.9746    12.4295 H
23 O23    -2.8200    -3.2409     8.7264 O
24 N24    -0.8403    -3.8397     9.8737 N
25 H25    -0.1118    -3.2422     9.5386 H
26 O26    -1.0448    -2.4291    13.2982 O
27 H27    -0.3898    -2.3050    13.9890 H
28 C28    -1.7973    -6.8362     9.7206 C
29 H29    -1.8960    -6.0275    10.4142 H
30 C30    -1.6998    -5.1939     7.8184 C
31 H31    -1.1306    -4.8700     6.9722 H
32 C32    -0.9787    -6.3704     8.5022 C
33 H33    -0.0081    -6.0554     8.8241 H
34 H34    -0.8795    -7.1792     7.8088 H
35 C35     0.8738    -7.4987     9.1019 C
36 H36     0.4496    -8.0112     8.2638 H
37 H37     0.5839    -6.4691     9.0743 H
38 C38     2.4093    -7.6016     9.0432 C
39 H39     2.6990    -8.6313     9.0707 H
40 H40     2.8334    -7.0892     9.8813 H
41 O41    -1.7427    -8.8920    11.0101 O
42 C42    -1.0767    -8.0134    10.4036 C
43 N43     0.3890    -8.1110    10.3473 N
44 H44     0.6601    -9.0732    10.3730 H
45 O45     2.8810    -7.0059     7.8317 O
46 H46     3.8381    -7.0700     7.7951 H
47 C47    -4.0127    -7.7553    10.4764 C
48 H48    -4.1105    -6.9472    11.1709 H
49 C49    -3.2917    -8.9333    11.1577 C
50 H50    -3.8598    -9.2575    12.0045 H
51 H51    -3.1939    -9.7413    10.4632 H
52 H52    -2.3205    -8.6195    11.4788 H
53 C53    -5.4106    -8.2069    10.0144 C
54 O54    -6.0235    -9.1044    10.6487 O
55 N55    -6.0293    -7.5893     8.8326 N
56 H56    -5.7762    -8.1067     8.0151 H
57 C57    -7.4914    -7.5973     8.9847 C
58 H58    -7.8345    -8.6062     9.0805 H
59 H59    -7.7619    -7.0439     9.8596 H
60 C60    -8.1399    -6.9498     7.7470 C
61 H61    -7.7967    -5.9409     7.6512 H
62 H62    -7.8695    -7.5032     6.8721 H
63 O63    -9.5622    -6.9574     7.8952 O
64 H64    -9.9665    -6.5537     7.1237 H
65 C65    -3.1948    -7.2887     9.2578 C
66 H66    -3.0964    -8.0970     8.5636 H
67 H67    -3.6957    -6.4705     8.7839 H
68 C68    -3.8177    -4.4715     6.6707 C
69 H69    -4.7877    -4.7871     6.3475 H
70 H70    -3.2482    -4.1468     5.8250 H
@<TRIPOS>BOND
1 1 8 2
2 1 9 1
3 1 68 1
4 2 3 1
5 2 4 1
6 2 5 1
7 2 9 1
8 5 6 1
9 5 7 1
10 5 11 1
11 9 10 1
12 11 12 1
13 13 14 1
14 13 15 1
15 13 30 1
16 13 68 1
17 16 23 2
18 16 24 1
19 16 30 1
20 17 18 1
21 17 19 1
22 17 20 1
23 17 24 1
24 20 21 1
25 20 22 1
26 20 26 1
27 24 25 1
28 26 27 1
29 28 29 1
30 28 32 1
31 28 42 1
32 28 65 1
33 30 31 1
34 30 32 1
35 32 33 1
36 32 34 1
37 35 36 1
38 35 37 1
39 35 38 1
40 35 43 1
41 38 39 1
42 38 40 1
43 38 45 1
44 41 42 2
45 42 43 1
46 43 44 1
47 45 46 1
48 47 48 1
49 47 49 1
50 47 53 1
51 47 65 1
52 49 50 1
53 49 51 1
54 49 52 1
55 53 54 2
56 53 55 1
57 55 56 1
58 55 57 1
59 57 58 1
60 57 59 1
61 57 60 1
62 60 61 1
63 60 62 1
64 60 63 1
65 63 64 1
66 65 66 1
67 65 67 1
68 68 69 1
69 68 70 1
