@<TRIPOS>MOLECULE
Molecule Name
87 86
SMALL
NO_CHARGES


@<TRIPOS>ATOM
1 C1    -4.0651    -3.4863     7.7345 C
2 C2    -5.0273    -2.8294     9.8332 C
3 H3    -6.0013    -2.8417     9.3905 H
4 H4    -4.5985    -1.8551     9.7247 H
5 C5    -5.1389    -3.1774    11.3292 C
6 H6    -4.1648    -3.1650    11.7719 H
7 H7    -5.5677    -4.1516    11.4378 H
8 O8    -4.1408    -2.2872     7.3603 O
9 N9    -4.1716    -3.8187     9.1624 N
10 H10    -3.2613    -3.8072     9.5762 H
11 O11    -5.9712    -2.2148    11.9817 O
12 H12    -6.0408    -2.4317    12.9143 H
13 C13    -3.0822    -5.7674     7.3408 C
14 H14    -3.6357    -6.1498     8.1727 H
15 H15    -2.9399    -6.5447     6.6194 H
16 C16    -3.0642    -4.0554     5.4988 C
17 H17    -3.6052    -3.2480     5.0511 H
18 H18    -2.1116    -3.7030     5.8356 H
19 H19    -2.9222    -4.8329     4.7775 H
20 C20    -3.8608    -4.6054     6.6965 C
21 H21    -4.8133    -4.9578     6.3597 H
22 C22    -1.9163    -4.1416     8.8645 C
23 C23    -1.5943    -3.4014    11.1253 C
24 H24    -2.0555    -2.4663    10.8848 H
25 H25    -2.3407    -4.0921    11.4579 H
26 C26    -0.5564    -3.1894    12.2431 C
27 H27     0.1900    -2.4987    11.9105 H
28 H28    -0.0952    -4.1245    12.4836 H
29 O29    -2.9316    -3.4010     8.7997 O
30 N30    -0.9258    -3.9393     9.9317 N
31 H31    -0.2282    -3.2937     9.6209 H
32 O32    -1.2066    -2.6660    13.4043 O
33 H33    -0.5596    -2.5339    14.1011 H
34 C34    -1.7292    -6.9738     9.6665 C
35 H35    -1.8725    -6.1970    10.3883 H
36 C36    -1.7114    -5.2601     7.8259 C
37 H37    -1.1579    -4.8773     6.9941 H
38 C38    -0.9323    -6.4221     8.4698 C
39 H39     0.0198    -6.0692     8.8073 H
40 H40    -0.7894    -7.1989     7.7480 H
41 C41     0.9745    -7.4706     9.0385 C
42 H42     0.5811    -7.9740     8.1802 H
43 H43     0.6300    -6.4576     9.0468 H
44 C44     2.5134    -7.4891     8.9839 C
45 H45     2.8579    -8.5021     8.9755 H
46 H46     2.9068    -6.9856     9.8422 H
47 O47    -1.5703    -9.0695    10.8815 O
48 C48    -0.9497    -8.1354    10.3105 C
49 N49     0.5192    -8.1530    10.2583 N
50 H50     0.8412    -9.0998    10.2505 H
51 O51     2.9563    -6.8252     7.7973 O
52 H52     3.9156    -6.8367     7.7632 H
53 C53    -3.8962    -8.0341    10.3768 C
54 H54    -4.0396    -7.2575    11.0987 H
55 C55    -5.2661    -8.5423     9.8905 C
56 O56    -5.8335    -9.4926    10.4893 O
57 N57    -5.9111    -7.9174     8.7267 N
58 H58    -5.6267    -8.3916     7.8934 H
59 C59    -7.3714    -8.0085     8.8683 C
60 H60    -7.6606    -9.0370     8.9269 H
61 H61    -7.6756    -7.5011     9.7598 H
62 C62    -8.0472    -7.3539     7.6491 C
63 H63    -7.7579    -6.3254     7.5905 H
64 H64    -7.7430    -7.8613     6.7575 H
65 O65    -9.4677    -7.4425     7.7870 O
66 H66    -9.8890    -7.0344     7.0270 H
67 C67    -3.0992    -7.4820     9.1804 C
68 H68    -2.9558    -8.2587     8.4585 H
69 H69    -3.6408    -6.6749     8.7330 H
70 C70    -3.1169    -9.1960    11.0207 C
71 H71    -2.9737    -9.9727    10.2988 H
72 H72    -2.1650    -8.8431    11.3585 H
73 C73    -5.2843   -10.2555    11.7311 C
74 O74    -5.4173   -11.4509    11.3611 O
75 N75    -6.4368    -9.3436    11.6994 N
76 H76    -6.9189    -9.3852    12.5745 H
77 C77    -7.3487    -9.7436    10.6181 C
78 H78    -8.1874    -9.0796    10.5950 H
79 H79    -6.8328    -9.6993     9.6817 H
80 C80    -7.8396   -11.1820    10.8662 C
81 H81    -7.0009   -11.8461    10.8894 H
82 H82    -8.3555   -11.2263    11.8026 H
83 O83    -8.7267   -11.5711     9.8143 O
84 H84    -9.0327   -12.4677     9.9690 H
85 C85    -3.9140    -9.7479    12.2172 C
86 H86    -4.0570    -8.9712    12.9392 H
87 H87    -3.3726   -10.5552    12.6645 H
@<TRIPOS>BOND
1 1 8 2
2 1 9 1
3 1 20 1
4 2 3 1
5 2 4 1
6 2 5 1
7 2 9 1
8 5 6 1
9 5 7 1
10 5 11 1
11 9 10 1
12 11 12 1
13 13 14 1
14 13 15 1
15 13 20 1
16 13 36 1
17 16 17 1
18 16 18 1
19 16 19 1
20 16 20 1
21 20 21 1
22 22 29 2
23 22 30 1
24 22 36 1
25 23 24 1
26 23 25 1
27 23 26 1
28 23 30 1
29 26 27 1
30 26 28 1
31 26 32 1
32 30 31 1
33 32 33 1
34 34 35 1
35 34 38 1
36 34 48 1
37 34 67 1
38 36 37 1
39 36 38 1
40 38 39 1
41 38 40 1
42 41 42 1
43 41 43 1
44 41 44 1
45 41 49 1
46 44 45 1
47 44 46 1
48 44 51 1
49 47 48 2
50 48 49 1
51 49 50 1
52 51 52 1
53 53 54 1
54 53 55 1
55 53 67 1
56 53 70 1
57 55 56 2
58 55 57 1
59 57 58 1
60 57 59 1
61 59 60 1
62 59 61 1
63 59 62 1
64 62 63 1
65 62 64 1
66 62 65 1
67 65 66 1
68 67 68 1
69 67 69 1
70 70 71 1
71 70 72 1
72 70 85 1
73 73 74 2
74 73 75 1
75 73 85 1
76 75 76 1
77 75 77 1
78 77 78 1
79 77 79 1
80 77 80 1
81 80 81 1
82 80 82 1
83 80 83 1
84 83 84 1
85 85 86 1
86 85 87 1
